<?xml version="1.0" encoding="UTF-8"?>
<flow xmlns="http://www.springframework.org/schema/webflow"
	xmlns:xsi="http://www.w3.org/2001/XMLSchema-instance"
	xsi:schemaLocation="http://www.springframework.org/schema/webflow
    http://www.springframework.org/schema/webflow/spring-webflow-2.4.xsd"
    start-state="inicio" parent="root">
    
    <persistence-context/>

    <view-state id="inicio" view="index.xhtml" >
      	<transition on="produto" to="listProduto">
      	   
 		</transition>
    </view-state>
    
    <view-state id="listProduto" view="list_produto.xhtml" >
      	<transition on="produto" to="cadastroProduto">
      	   
 		</transition>
    </view-state>
    
    <view-state id="cadastroProduto" view="cadastro_produto.xhtml"  >
      	<on-entry >
        	<evaluate expression="produtoControle.newProdutoBean()" result="flowScope.produtoBean" />
      	</on-entry>
      	<transition on="salvar" to="listProduto">
      		<evaluate expression="produtoControle.salveProduto(flowScope.produtoBean,  messageContext)"/>
 		</transition>  
    </view-state>
    

</flow>