<?xml version="1.0" encoding="UTF-8"?>
<flow xmlns="http://www.springframework.org/schema/webflow"
	xmlns:xsi="http://www.w3.org/2001/XMLSchema-instance"
	xsi:schemaLocation="http://www.springframework.org/schema/webflow
    http://www.springframework.org/schema/webflow/spring-webflow-2.4.xsd"
    start-state="inicio" parent="root">
    
    <persistence-context/>

    <view-state id="inicio" view="index.xhtml" >
      	<transition on="produto" to="listProduto"> </transition>
 		<transition on="tiporefeicao" to="listTipoRefeicao"> </transition>
 		<transition on="categoriaproduto" to="listCategoriaProduto"> </transition>   
	 	<transition on="cadusuario" to="cadastroUsuario"> </transition>
 		<transition on="listPaciente" to="listPaciente"> </transition>
 		<transition on="listUsuario" to="listUsuario"> </transition>
 		<transition on="pedido" to="geraPedido"> </transition>
 		<transition on="avaliacao" to="avaliacao"></transition>	
 	</view-state>
    
 	<view-state id="avaliacao" view="list_paciente_avaliacao.xhtml" >
      	<transition on="cadastraravaliacao" to="cadastraravaliacao"></transition>
    </view-state>	
    
 	<view-state id="cadastraravaliacao" view="cadastro_avaliacao.xhtml" >
    	<on-entry >
        	<evaluate expression="avaliacaoControle.newAvaliacaoBean()" result="flowScope.avaliacaoBean" />
      	</on-entry>  	
    </view-state>
 		
    <view-state id="geraPedido" view="gera_pedido.xhtml" >
      	<on-entry >
        	<evaluate expression="pedidoControle.newPedidoBean()" result="flowScope.pedidoBean" />
      	</on-entry>
      	<transition on="salvar" to="inicio">
      	    <evaluate expression="pedidoControle.salvePedido(flowScope.pedidoBean, messageContext)"></evaluate>
      	</transition>
    </view-state>
    
    <view-state id="listUsuario" view="list_usuario.xhtml" >
      	<on-entry >
      		<evaluate expression="usuarioControle.findAll()"  result="flowScope.usuarioBean"/>
      	</on-entry>
      	<transition on="cadastroUsuario" to="cadastroUsuario"/>
    
 		
    </view-state>
    
    <view-state id="listProduto" view="list_produto.xhtml" >
      	<on-entry >
      		<evaluate expression="produtoControle.findAll()"  result="flowScope.produtoBean"/>
      	</on-entry>
      	<transition on="produto" to="cadastroProduto"/>
    
 		<transition on="delete" to="listProduto">
 		    <evaluate expression="produtoControle.deleteProduto(messageContext)"/>
 		</transition>
 		<transition on="edit" to="alteraProduto">
 		   
 		</transition>
    </view-state>
    
    <view-state id="listPaciente" view="list_paciente.xhtml" >
      	
      	<transition on="cadastroPaciente" to="cadastroPaciente"/>
      	<transition on="delete" to="listPaciente">
 		    <evaluate expression="pacienteControle.deletePaciente(messageContext)"/>
 		</transition>
      	<transition on="edit" to="alteraPaciente">
    	</transition>
 	
    </view-state>
    
    <view-state id="cadastroUsuario" view="cadastro_usuario.xhtml" >
      	<on-entry >
        	<evaluate expression="usuarioControle.newUsuarioBean()" result="flowScope.usuarioBean" />
      	</on-entry>
      	<transition on="salvar" to="inicio">
      	    <evaluate expression="usuarioControle.salveUsuario(flowScope.usuarioBean, messageContext)"></evaluate>
      	</transition>
    </view-state>
    
    <view-state id="cadastroPaciente" view="cadastro_paciente.xhtml" >
      	<on-entry >
        	<evaluate expression="pacienteControle.newPacienteBean()" result="flowScope.pacienteBean" />
      	</on-entry>
      	<transition on="salvar" to="listPaciente">
      	    <evaluate expression="pacienteControle.salvePaciente(flowScope.pacienteBean, messageContext)"></evaluate>
      	</transition>
      	<transition on="cancelar" to="listPaciente"/>
    </view-state>
    
    <view-state id="alteraProduto" view="cadastro_produto.xhtml"  >
      	<on-entry >
        	<evaluate expression="produtoControle.editProduto()" result="flowScope.produtoBean" />
      	</on-entry>
      	<transition on="salvar" to="listProduto">
      		<evaluate expression="produtoControle.salveProduto(flowScope.produtoBean,  messageContext)"/>
 		</transition>  
    </view-state>
    
    <view-state id="alteraPaciente" view="cadastro_paciente.xhtml"  >
      	<on-entry >
        	<evaluate expression="pacienteControle.editPaciente()" result="flowScope.pacienteBean" />
      	</on-entry>
      	<transition on="salvar" to="listPaciente">
      		<evaluate expression="pacienteControle.salvePaciente(flowScope.pacienteBean,  messageContext)"/>
 		</transition>  
    </view-state>
    
    <view-state id="cadastroProduto" view="cadastro_produto.xhtml"  >
      	<on-entry >
        	<evaluate expression="produtoControle.newProdutoBean()" result="flowScope.produtoBean" />
      	</on-entry>
      	<transition on="salvar" to="listProduto">
      		<evaluate expression="produtoControle.salveProduto(flowScope.produtoBean,  messageContext)"/>
 		</transition>  
    </view-state>
    
    <view-state id="listTipoRefeicao" view="list_tiporefeicao.xhtml" >
      	<on-entry >
      		<evaluate expression="tiporefeicaoControle.findAll()"  result="flowScope.tiporefeicaoBean"/>
      	</on-entry>
      	<transition on="tiporefeicao" to="cadastraTipoRefeicao"/>
    	
    </view-state>
    
    <view-state id="cadastraTipoRefeicao" view="cadastro_tiporefeicao.xhtml"  >
      	<on-entry >
        	<evaluate expression="tiporefeicaoControle.newTipoRefeicaoBean()" result="flowScope.tiporefeicaoBean" />
      	</on-entry>
      	<transition on="salvar" to="listTipoRefeicao">
      		<evaluate expression="tiporefeicaoControle.salveTipoRefeicao(flowScope.tiporefeicaoBean,  messageContext)"/>
 		</transition>  
    </view-state>
    
     <view-state id="listCategoriaProduto" view="list_categoriaproduto.xhtml" >
      	<on-entry >
      		<evaluate expression="categoriaprodutoControle.getAll()"  result="flowScope.categoriaprodutoBean"/>
      	</on-entry>
      	<transition on="categoriaproduto" to="cadastroCategoriaProduto"/>
    	
    </view-state>
    
    
     <view-state id="cadastroCategoriaProduto" view="cadastro_categoriaproduto.xhtml"  >
      	<on-entry >
        	<evaluate expression="categoriaprodutoControle.newCategoriaProdutoBean()" result="flowScope.categoriaprodutoBean" />
      	</on-entry>
      	<transition on="salvar" to="listCategoriaProduto">
      		<evaluate expression="categoriaprodutoControle.salveCategoriaProduto(flowScope.categoriaprodutoBean,  messageContext)"/>
 		</transition>  
    </view-state>

</flow>